#!/system/bin/sh
sed -i "s/\r$//" "$3/customize.sh" 2>/dev/null
unzip -o "$3" -x "META-INF/*" -d "$MODPATH"
[ -f "$MODPATH/customize.sh" ] && . "$MODPATH/customize.sh"
exit 0
